No_EVs/Output_No_EVs/output_current_566.csv
# Output_case1\output_current_566.csv run at 2000-01-01 09:26:00 EST on 907 links
link_name,currA_mag,currA_angle,currB_mag,currB_angle,currC_mag,currC_angle
Source_Impedance,3.949149,-0.248547,2.863948,3.515753,2.328828,2.093194
TR1,3.949149,-0.248547,2.863948,3.515753,2.328828,2.093194
LINE1,91.345509,-0.831298,116.052176,3.341045,26.304147,1.248133
LINE2,91.345509,-0.831298,116.052176,3.341045,26.304147,1.248133
LINE3,91.345509,-0.831298,116.052176,3.341045,26.304147,1.248133
LINE4,91.345509,-0.831298,116.052176,3.341045,26.304147,1.248133
LINE5,91.345509,-0.831298,116.052176,3.341045,26.304147,1.248133
LINE6,91.345509,-0.831298,116.052176,3.341045,26.304147,1.248133
LINE7,91.345509,-0.831298,116.052176,3.341045,26.304147,1.248133
LINE8,91.345509,-0.831298,116.052176,3.341045,26.304147,1.248133
LINE9,91.345509,-0.831298,116.052176,3.341045,26.304147,1.248133
LINE10,91.345509,-0.831298,116.052176,3.341045,26.304147,1.248133
LINE11,91.345509,-0.831298,116.052176,3.341045,26.304147,1.248133
LINE12,91.345509,-0.831298,116.052176,3.341045,26.304147,1.248133
LINE13,91.345509,-0.831298,116.052176,3.341045,26.304147,1.248133
LINE14,91.345509,-0.831298,116.052176,3.341045,26.304147,1.248133
LINE15,0.000000,-0.781766,0.000000,0.220047,0.000000,1.675344
LINE16,91.345509,-0.831298,116.052176,3.341045,26.304147,1.248133
LINE17,0.000000,-1.007726,0.000000,0.296819,0.000000,1.723655
LINE18,91.345509,-0.831298,116.052176,3.341045,26.304147,1.248133
LINE19,0.000000,-1.215222,0.000000,0.618569,0.000000,4.505885
LINE20,91.345509,-0.831298,116.052176,3.341045,26.304147,1.248133
LINE21,0.000000,4.306951,0.000000,0.618569,0.000000,4.578515
LINE22,91.345509,-0.831298,116.052176,3.341045,26.304147,1.248133
LINE23,0.000000,-1.076582,0.000000,-0.269911,0.000000,1.672142
LINE24,91.345509,-0.831298,116.052176,3.341045,26.304147,1.248133
LINE25,0.000000,-0.920987,0.000000,4.687457,0.000000,1.613146
LINE26,3.381392,-0.842108,0.000000,3.449347,0.000000,1.493752
LINE27,87.964323,-0.830882,116.052176,3.341045,26.304147,1.248133
LINE28,0.000000,-0.757747,0.000000,4.687457,0.000000,1.610229
LINE29,2.408108,-0.842106,0.000000,4.019914,0.000000,-0.940908
LINE30,0.973284,-0.842113,0.000000,3.456781,0.000000,1.494481
LINE31,87.964323,-0.830882,116.052176,3.341045,26.304147,1.248133
LINE32,0.000000,-0.713856,0.000000,3.835491,0.000000,1.618005
LINE33,2.408108,-0.842106,0.000000,1.266244,0.000000,1.706627
LINE34,0.973284,-0.842113,0.000000,3.508397,0.000000,1.481619
LINE35,0.000000,3.434289,21.199735,3.342790,0.000000,1.621426
LINE36,87.964323,-0.830882,94.852481,3.340655,26.304147,1.248133
LINE37,0.000000,-0.719670,0.000000,3.675260,0.000000,1.614766
LINE38,0.973284,-0.842113,0.000000,3.363815,0.000000,1.615236
LINE39,0.000000,3.627355,9.357379,3.342782,0.000000,1.629803
LINE40,0.000000,1.859586,11.842356,3.342796,0.000000,-1.475789
LINE41,87.964323,-0.830882,94.852481,3.340655,26.304147,1.248133
LINE42,0.000000,-0.474372,0.000000,1.142760,0.000000,4.186255
LINE43,0.000000,-1.007726,0.000000,4.687457,0.000000,3.116661
LINE44,0.973284,-0.842113,0.000000,3.640224,0.000000,1.553733
LINE45,0.000000,3.349575,9.357379,3.342782,0.000000,1.659395
LINE46,0.000000,-0.094043,11.842356,3.342796,0.000000,-1.464299
LINE47,87.964323,-0.830882,94.852481,3.340655,26.304147,1.248133
LINE48,0.000000,-0.578701,0.000000,1.812363,0.000000,4.253769
LINE49,0.000000,-0.612935,0.000000,-0.488580,0.000000,4.532460
LINE50,0.973284,-0.842113,0.000000,4.092885,0.000000,1.669384
LINE51,0.000000,3.282345,9.357379,3.342782,0.000000,1.641333
LINE52,87.964323,-0.830882,94.852481,3.340655,26.304147,1.248133
LINE53,0.000000,-0.288491,0.000000,0.500981,0.000000,1.123127
LINE54,0.000000,-0.707540,0.000000,1.864394,0.000000,4.156308
LINE55,0.000000,-0.488580,0.000000,-0.316389,0.000000,4.650755
LINE56,0.973284,-0.842113,0.000000,3.591265,0.000000,1.586634
LINE57,0.000000,3.599815,9.357379,3.342782,0.000000,1.663371
LINE58,87.964323,-0.830882,94.852481,3.340655,26.304147,1.248133
LINE59,0.000000,-1.153814,0.000000,0.670948,0.000000,0.127907
LINE60,0.000000,-0.646378,0.000000,2.136655,0.000000,4.074551
LINE61,0.000000,-0.810330,0.000000,-0.108073,0.000000,4.676855
LINE62,0.973284,-0.842113,0.000000,-0.244828,0.000000,-1.555556
LINE63,0.000000,3.590519,9.357379,3.342782,0.000000,1.781362
LINE64,86.551418,-0.830766,94.852481,3.340655,26.304147,1.248133
LINE65,1.412941,-0.838043,0.000000,0.610254,0.000000,1.693613
LINE66,0.000000,-0.202662,0.000000,0.720475,0.000000,-0.846952
LINE67,0.000000,-0.639159,0.000000,1.814683,0.000000,4.103271
LINE68,0.000000,-0.920987,0.000000,-0.024932,0.000000,4.673395
LINE69,0.973284,-0.842113,0.000000,1.915582,0.000000,-1.327845
LINE70,0.000000,2.231514,9.357379,3.342782,0.000000,4.068705
LINE71,86.551418,-0.830766,94.852481,3.340655,26.304147,1.248133
LINE72,0.206666,-0.838047,0.000000,0.121750,0.000000,1.596207
LINE73,1.206275,-0.838042,0.000000,0.011060,0.000000,2.058341
LINE74,0.000000,-0.402574,0.000000,3.354274,0.000000,1.305953
LINE75,0.000000,-0.670954,0.000000,1.769908,0.000000,4.140021
LINE76,0.000000,-0.810330,0.000000,0.055539,0.000000,4.671833
LINE77,0.000000,4.674819,9.357379,3.342782,0.000000,-1.569662
LINE78,86.551418,-0.830766,94.852481,3.340655,26.304147,1.248133
LINE79,0.000000,-0.603385,0.000000,0.996318,0.000000,1.445027
LINE80,0.000000,-0.736104,0.000000,1.921609,0.000000,4.097295
LINE81,0.000000,-0.825713,0.000000,0.077275,0.000000,4.669280
LINE82,0.000000,-1.198449,9.357379,3.342782,0.000000,4.465540
LINE83,86.551418,-0.830766,94.852481,3.340655,26.304147,1.248133
LINE84,0.000000,-1.520393,0.000000,-0.829203,0.000000,1.194843
LINE85,0.000000,-0.695176,0.000000,2.003126,0.000000,4.079011
LINE86,0.000000,-0.737290,0.000000,0.070020,0.000000,4.662823
LINE87,86.551418,-0.830766,94.852481,3.340655,26.304147,1.248133
LINE88,0.000000,-0.325104,0.000000,3.039636,0.000000,-1.262929
LINE89,0.000000,-0.688993,0.000000,2.186448,0.000000,4.065968
LINE90,0.000000,-0.887102,0.000000,0.058209,0.000000,4.670271
LINE91,86.551418,-0.830766,94.852481,3.340655,26.304147,1.248133
LINE92,0.000000,-0.662630,0.000000,1.434005,0.000000,3.984429
LINE93,0.000000,-0.810330,0.000000,0.220047,0.000000,3.116661
LINE94,86.551418,-0.830766,94.852481,3.340655,26.304147,1.248133
LINE95,0.000000,-0.585186,0.000000,2.124149,0.000000,4.077158
LINE96,0.000000,3.580308,0.000000,0.760466,0.000000,3.116661
LINE97,86.551418,-0.830766,94.852481,3.340655,26.304147,1.248133
LINE98,0.000000,-0.396824,0.000000,1.776524,0.000000,3.997479
LINE99,0.000000,-0.024932,0.000000,2.653013,0.000000,4.671833
LINE100,86.551418,-0.830766,94.852481,3.340655,26.304147,1.248133
LINE101,0.000000,0.777623,0.000000,1.278864,0.000000,3.591842
LINE102,0.000000,0.000000,0.000000,0.000000,0.000000,3.116661
LINE103,2.156055,-0.836581,2.853198,3.341703,11.626905,1.249341
LINE104,84.395401,-0.830617,91.999285,3.340622,14.677257,1.247177
LINE105,0.000000,1.135772,0.000000,0.791753,0.000000,3.615135
LINE106,2.156055,-0.836581,2.853198,3.341703,11.626905,1.249341
LINE107,84.395401,-0.830617,91.999285,3.340622,14.677257,1.247177
LINE108,0.000000,0.390635,0.000000,1.056859,0.000000,3.649836
LINE109,2.156055,-0.836581,2.853198,3.341703,11.626905,1.249341
LINE110,84.395401,-0.830617,91.999285,3.340622,14.677257,1.247177
LINE111,0.000000,0.204922,0.000000,1.088597,0.000000,3.501240
LINE112,2.156055,-0.836581,2.853198,3.341703,11.626905,1.249341
LINE113,84.395401,-0.830617,91.999285,3.340622,14.677257,1.247177
LINE114,0.000000,0.203861,0.000000,1.090163,0.000000,3.504114
LINE115,2.156055,-0.836581,2.853198,3.341703,11.626905,1.249341
LINE116,0.215876,-0.835439,0.380363,3.341327,1.207445,1.248852
LINE117,84.179527,-0.830605,91.618923,3.340620,13.469813,1.247026
LINE118,0.000000,0.308592,0.000000,1.121511,0.000000,3.516110
LINE119,2.156055,-0.836581,2.853198,3.341703,11.626905,1.249341
LINE120,0.000000,0.837238,0.000000,0.760466,0.000000,4.675739
LINE121,0.215876,-0.835439,0.380363,3.341327,1.207445,1.248852
LINE122,84.179527,-0.830605,91.618923,3.340620,13.469813,1.247026
LINE123,0.000000,0.308616,0.000000,1.054137,0.000000,3.400648
LINE124,2.156055,-0.836581,2.853198,3.341703,11.626905,1.249341
LINE125,0.000000,1.224114,0.000000,0.760466,0.000000,4.669230
LINE126,0.215876,-0.835439,0.380363,3.341327,1.207445,1.248852
LINE127,84.179527,-0.830605,91.618923,3.340620,13.469813,1.247026
LINE128,0.000000,0.589390,0.000000,1.107080,0.000000,3.329669
LINE129,2.156055,-0.836581,2.853198,3.341703,11.626905,1.249341
LINE130,0.000000,0.438716,0.000000,0.000000,0.000000,4.669230
LINE131,0.215876,-0.835439,0.000000,-0.504604,0.000000,1.478516
LINE132,0.000000,-1.449067,0.380363,3.341327,1.207445,1.248852
LINE133,84.179527,-0.830605,91.618923,3.340620,13.469813,1.247026
LINE134,0.000000,0.553938,0.000000,1.047326,0.000000,3.345740
LINE135,2.156055,-0.836581,2.853198,3.341703,11.626905,1.249341
LINE136,0.000000,0.760466,0.000000,4.687457,0.000000,4.625038
LINE137,0.215876,-0.835439,0.000000,-0.903602,0.000000,1.492966
LINE138,0.000000,-1.438415,0.380363,3.341327,1.207445,1.248852
LINE139,84.179527,-0.830605,91.618923,3.340620,13.469813,1.247026
LINE140,0.000000,0.655092,0.000000,1.047411,0.000000,3.368491
LINE141,2.156055,-0.836581,2.853198,3.341703,11.626905,1.249341
LINE142,0.000000,1.545864,0.000000,-1.007726,0.000000,4.614669
LINE143,0.215876,-0.835439,0.000000,-0.466127,0.000000,1.515946
LINE144,0.000000,-1.446520,0.380363,3.341327,1.207445,1.248852
LINE145,84.179527,-0.830605,91.618923,3.340620,13.469813,1.247026
LINE146,0.000000,1.395933,0.000000,1.528073,0.000000,3.724672
LINE147,2.156055,-0.836581,2.853198,3.341703,11.626905,1.249341
LINE148,0.000000,0.563071,0.000000,-0.024932,0.000000,4.406065
LINE149,0.215876,-0.835439,0.000000,-0.320755,0.000000,1.505900
LINE150,0.000000,-1.263166,0.000000,0.556273,1.207445,1.248852
LINE151,0.000000,2.479616,0.380363,3.341327,0.000000,1.656244
LINE152,84.179527,-0.830605,91.618923,3.340620,13.469813,1.247026
LINE153,0.000000,0.800009,0.000000,1.698951,0.000000,3.187144
LINE154,2.156055,-0.836581,2.853198,3.341703,11.626905,1.249341
LINE155,0.000000,0.333839,0.000000,4.687457,0.000000,1.805494
LINE156,0.215876,-0.835439,0.000000,-0.005013,0.000000,1.494799
LINE157,0.000000,-1.272500,0.000000,0.542300,1.207445,1.248852
LINE158,0.000000,2.486292,0.380363,3.341327,0.000000,1.650020
LINE159,84.179527,-0.830605,91.618923,3.340620,13.469813,1.247026
LINE160,0.000000,-0.893790,0.000000,2.933449,0.000000,2.879716
LINE161,0.000000,2.607041,0.895563,3.341682,0.000000,4.672071
LINE162,2.156055,-0.836581,1.957635,3.341713,11.626905,1.249341
LINE163,0.000000,0.296819,0.000000,4.687457,0.000000,3.116661
LINE164,0.215876,-0.835439,0.000000,-0.167052,0.000000,1.495185
LINE165,0.000000,-1.260223,0.000000,0.551099,1.207445,1.248852
LINE166,0.000000,2.522591,0.380363,3.341327,0.000000,1.706054
LINE167,84.179527,-0.830605,91.618923,3.340620,13.469813,1.247026
LINE168,0.000000,-0.253716,0.000000,-0.253716,0.000000,2.451077
LINE169,0.000000,2.651686,0.895563,3.341682,0.000000,4.687798
LINE170,2.156055,-0.836581,1.957635,3.341713,11.626905,1.249341
LINE171,0.000000,0.099423,0.000000,3.116661,0.000000,4.648414
LINE172,0.215876,-0.835439,0.000000,-0.100334,0.000000,1.495733
LINE173,0.000000,-1.345799,0.000000,0.472373,0.000000,3.853695
LINE174,0.000000,-0.912624,0.000000,3.094992,1.207445,1.248852
LINE175,0.000000,2.556121,0.380363,3.341327,0.000000,2.039861
LINE176,84.179527,-0.830605,91.618923,3.340620,13.469813,1.247026
LINE177,0.000000,-0.545369,0.895563,3.341682,0.000000,-1.384104
LINE178,2.156055,-0.836581,1.957635,3.341713,0.000000,4.489310
LINE179,0.000000,4.444165,0.000000,-1.555867,11.626905,1.249341
LINE180,0.000000,0.140217,0.000000,-0.488580,0.000000,1.600497
LINE181,0.215876,-0.835439,0.000000,-0.074873,0.000000,1.499896
LINE182,0.000000,-1.258348,0.000000,0.507923,0.000000,3.840424
LINE183,0.000000,-0.866462,0.000000,3.075479,1.207445,1.248852
LINE184,0.000000,2.467810,0.380363,3.341327,0.000000,4.514666
LINE185,84.179527,-0.830605,91.618923,3.340620,13.469813,1.247026
LINE186,2.156055,-0.836581,1.957635,3.341713,0.000000,4.416156
LINE187,0.000000,4.434470,0.000000,-1.497385,11.626905,1.249341
LINE188,0.000000,0.220047,0.000000,0.438716,0.000000,3.116661
LINE189,0.215876,-0.835439,0.000000,-0.165978,0.000000,1.514566
LINE190,0.000000,1.162714,0.000000,0.485960,0.000000,1.479439
LINE191,0.000000,-1.072268,0.000000,0.244114,0.000000,3.843652
LINE192,0.000000,-0.694573,0.000000,3.117458,1.207445,1.248852
LINE193,0.000000,2.533556,0.380363,3.341327,0.000000,4.506973
LINE194,84.179527,-0.830605,91.618923,3.340620,13.469813,1.247026
LINE195,2.156055,-0.836581,1.957635,3.341713,0.000000,4.488738
LINE196,0.000000,2.825114,0.000000,3.053608,9.721430,1.249350
LINE197,0.000000,4.375874,0.000000,-1.551827,1.905476,1.249293
LINE198,0.000000,2.653013,0.000000,0.140217,0.000000,3.116661
LINE199,0.215876,-0.835439,0.000000,-0.078800,0.000000,1.523415
LINE200,0.000000,0.763781,0.000000,0.185350,0.000000,0.799814
LINE201,0.000000,-1.203716,0.000000,0.709567,0.000000,3.823411
LINE202,0.000000,-0.752789,0.000000,3.090073,1.207445,1.248852
LINE203,0.000000,2.528353,0.380363,3.341327,0.000000,4.327998
LINE204,84.179527,-0.830605,91.618923,3.340620,13.469813,1.247026
LINE205,2.156055,-0.836581,0.000000,3.200698,0.000000,4.529530
LINE206,0.000000,2.633943,1.957635,3.341713,0.000000,4.321770
LINE207,0.000000,4.378979,0.000000,3.051776,9.721430,1.249350
LINE208,0.000000,3.770001,0.000000,-1.371351,1.905476,1.249293
LINE209,0.000000,2.331263,0.000000,0.000000,0.000000,4.695269
LINE210,0.215876,-0.835439,0.000000,-0.039414,0.000000,1.524392
LINE211,0.000000,-1.523928,0.000000,0.216922,0.000000,3.676383
LINE212,0.000000,-1.342592,0.000000,3.010350,1.207445,1.248852
LINE213,0.000000,2.540068,0.380363,3.341327,0.000000,4.559170
LINE214,84.179527,-0.830605,91.618923,3.340620,13.469813,1.247026
LINE215,2.156055,-0.836581,0.000000,1.495065,0.000000,4.668693
LINE216,0.000000,2.455275,1.957635,3.341713,0.000000,4.422083
LINE217,0.000000,4.511088,0.000000,4.545450,1.905476,1.249293
LINE218,0.000000,0.000000,0.000000,0.000000,0.000000,-0.024932
LINE219,0.215876,-0.835439,0.000000,-0.096362,0.000000,1.521059
LINE220,0.000000,-1.001993,0.000000,-0.801889,0.000000,3.486493
LINE221,0.000000,-1.091819,0.000000,3.004987,1.207445,1.248852
LINE222,0.000000,2.514777,0.380363,3.341327,0.000000,4.546346
LINE223,84.179527,-0.830605,91.618923,3.340620,13.469813,1.247026
LINE224,2.156055,-0.836581,0.000000,2.580607,0.000000,-1.460282
LINE225,0.000000,2.433563,1.957635,3.341713,0.000000,4.489332
LINE226,0.000000,4.342978,0.000000,3.970447,1.905476,1.249293
LINE227,0.215876,-0.835439,0.000000,-0.328446,0.000000,1.534062
LINE228,0.000000,4.313401,0.000000,-0.605614,0.000000,3.475601
LINE229,0.000000,-0.927202,0.000000,2.984780,1.207445,1.248852
LINE230,0.000000,2.638579,0.380363,3.341327,0.000000,4.610799
LINE231,84.179527,-0.830605,91.618923,3.340620,13.469813,1.247026
LINE232,0.000000,-1.325785,1.957635,3.341713,0.000000,1.609522
LINE233,0.000000,2.292030,0.000000,3.510390,0.000000,1.842693
LINE234,0.000000,3.536234,0.000000,3.882220,1.905476,1.249293
LINE235,0.215876,-0.835439,0.000000,-0.216249,0.000000,1.531946
LINE236,0.000000,-1.528534,0.000000,0.190817,0.000000,3.385883
LINE237,0.000000,-0.602613,0.000000,3.009710,1.207445,1.248852
LINE238,0.000000,2.628815,0.380363,3.341327,0.000000,4.619785
LINE239,84.179527,-0.830605,91.618923,3.340620,13.469813,1.247026
LINE240,0.000000,-1.278534,1.957635,3.341713,0.000000,1.512383
LINE241,0.000000,2.714585,0.000000,2.714585,1.905476,1.249293
LINE242,0.215876,-0.835439,0.000000,4.675437,0.000000,1.501999
LINE243,0.000000,-0.893982,0.000000,4.693802,0.000000,2.368210
LINE244,0.000000,-0.415378,0.000000,2.954029,1.207445,1.248852
LINE245,0.000000,2.567432,0.380363,3.341327,0.000000,4.699156
LINE246,84.179527,-0.830605,91.618923,3.340620,13.469813,1.247026
LINE247,0.000000,4.180930,0.204713,3.341705,0.000000,2.105658
LINE248,0.000000,3.552685,1.752922,3.341714,0.000000,1.498228
LINE249,0.000000,0.978570,0.000000,2.829572,1.905476,1.249293
LINE250,0.215876,-0.835439,0.000000,3.793210,0.000000,0.003476
LINE251,0.000000,2.205523,0.000000,0.130632,0.000000,3.144126
LINE252,0.000000,-0.411949,0.000000,2.870265,1.207445,1.248852
LINE253,0.000000,2.537207,0.380363,3.341327,0.000000,4.695784
LINE254,0.658045,-0.833399,0.000000,1.205052,0.000000,4.658880
LINE255,83.521484,-0.830583,91.618923,3.340620,13.469813,1.247026
LINE256,0.000000,2.168754,0.000000,3.143535,1.905476,1.249293
LINE257,0.215876,-0.835439,0.000000,4.476775,0.000000,1.506223
LINE258,0.000000,1.612611,0.000000,-0.936083,0.000000,2.894307
LINE259,0.000000,-0.407683,0.000000,2.926225,1.207445,1.248852
LINE260,0.000000,2.489923,0.380363,3.341327,0.000000,-1.560236
LINE261,0.658045,-0.833399,0.000000,1.228024,0.000000,4.667945
LINE262,83.521484,-0.830583,91.618923,3.340620,13.469813,1.247026
LINE263,0.000000,0.678948,0.000000,-0.693940,1.905476,1.249293
LINE264,0.215876,-0.835439,0.000000,1.323613,0.000000,1.568715
LINE265,0.000000,0.625886,0.000000,-1.021858,0.000000,3.254090
LINE266,0.000000,-0.460630,0.000000,2.976516,1.207445,1.248852
LINE267,0.000000,3.261084,0.188045,3.341327,0.000000,1.820138
LINE268,0.000000,2.235225,0.192318,3.341327,0.000000,4.677379
LINE269,0.658045,-0.833399,0.000000,1.307768,0.000000,4.674021
LINE270,0.000000,-0.616910,0.000000,-1.502403,0.972801,1.248072
LINE271,83.521484,-0.830583,91.618923,3.340620,12.497013,1.246945
LINE272,0.215876,-0.835439,0.000000,0.508634,0.000000,-1.544405
LINE273,0.000000,-0.573132,0.000000,3.558348,0.000000,2.907265
LINE274,0.000000,-0.494134,0.000000,2.725360,1.207445,1.248852
LINE275,0.000000,-0.976996,0.188045,3.341327,0.000000,4.457058
LINE276,0.000000,2.564934,0.192318,3.341327,0.000000,4.684210
LINE277,0.658045,-0.833399,0.000000,0.764532,0.000000,4.703168
LINE278,0.000000,-0.488200,0.000000,4.204280,0.972801,1.248072
LINE279,83.521484,-0.830583,91.618923,3.340620,12.497013,1.246945
LINE280,0.215876,-0.835439,0.000000,3.309137,0.000000,1.397867
LINE281,0.000000,0.699032,0.000000,4.410052,0.000000,2.344696
LINE282,0.000000,-0.492999,0.000000,2.375790,1.207445,1.248852
LINE283,0.000000,2.584570,0.192318,3.341327,0.000000,4.696358
LINE284,0.658045,-0.833399,0.000000,0.914219,0.000000,4.705738
LINE285,0.000000,-0.475506,0.000000,3.976203,0.972801,1.248072
LINE286,79.383719,-0.830547,48.456340,3.340039,1.936786,1.248246
LINE287,4.137766,-0.831271,43.162600,3.341271,10.560229,1.246706
LINE288,0.215876,-0.835439,0.000000,-0.179778,0.000000,4.589033
LINE289,0.000000,2.085330,0.000000,-1.344555,0.000000,0.043183
LINE290,0.000000,-0.153926,0.000000,4.101840,0.224833,1.248850
LINE291,0.000000,-0.566130,0.000000,2.499942,0.982612,1.248852
LINE292,0.000000,2.607258,0.192318,3.341327,0.000000,4.688010
LINE293,0.658045,-0.833399,0.000000,0.887670,0.000000,-1.529709
LINE294,0.000000,-0.543992,0.000000,3.912675,0.972801,1.248072
LINE295,79.383719,-0.830547,48.456340,3.340039,1.936786,1.248246
LINE296,4.137766,-0.831271,43.162600,3.341271,10.560229,1.246706
LINE297,0.000000,-0.161920,0.000000,-1.063751,0.224833,1.248850
LINE298,0.000000,-0.384319,0.000000,2.896360,0.982612,1.248852
LINE299,0.000000,2.363037,0.192318,3.341327,0.000000,4.021201
LINE300,0.658045,-0.833399,0.000000,0.739956,0.000000,-1.545357
LINE301,0.000000,-0.484843,0.000000,3.848843,0.972801,1.248072
LINE302,79.383719,-0.830547,48.456340,3.340039,1.936786,1.248246
LINE303,4.137766,-0.831271,43.162600,3.341271,10.560229,1.246706
LINE304,0.000000,0.634422,0.000000,-0.883606,0.224833,1.248850
LINE305,0.000000,2.516260,0.000000,-0.022120,0.982612,1.248852
LINE306,0.000000,2.948118,0.192318,3.341327,0.000000,1.151536
LINE307,0.658045,-0.833399,0.000000,0.782345,0.000000,1.212270
LINE308,0.000000,-0.492347,0.000000,3.698943,0.972801,1.248072
LINE309,79.383719,-0.830547,48.456340,3.340039,1.936786,1.248246
LINE310,4.137766,-0.831271,43.162600,3.341271,10.560229,1.246706
LINE311,0.000000,2.857074,0.000000,-0.019930,0.224833,1.248850
LINE312,0.000000,3.131453,0.000000,0.410446,0.982612,1.248852
LINE313,0.000000,4.584040,0.192318,3.341327,0.000000,-0.530076
LINE314,0.658045,-0.833399,0.000000,0.977514,0.000000,1.276595
LINE315,0.000000,-0.605992,0.000000,4.094264,0.972801,1.248072
LINE316,54.176526,-0.831100,0.000000,-0.493240,0.000000,3.854898
LINE317,25.207219,-0.829358,48.456340,3.340039,1.936786,1.248246
LINE318,4.137766,-0.831271,43.162600,3.341271,10.560229,1.246706
LINE319,0.000000,0.297395,0.000000,-0.318463,0.224833,1.248850
LINE320,0.000000,-0.766354,0.000000,0.253145,0.982612,1.248852
LINE321,0.658045,-0.833399,0.000000,0.800338,0.000000,-1.432513
LINE322,0.000000,-1.375945,0.000000,0.076507,0.972801,1.248072
LINE323,54.176526,-0.831100,0.000000,-0.526574,0.000000,3.557786
LINE324,25.207219,-0.829358,48.456340,3.340039,1.936786,1.248246
LINE325,4.137766,-0.831271,43.162600,3.341271,10.560229,1.246706
LINE326,0.000000,0.502063,0.000000,3.398060,0.982612,1.248852
LINE327,0.658045,-0.833399,0.000000,0.774956,0.000000,-1.431640
LINE328,0.000000,-0.148483,0.000000,1.878370,0.972801,1.248072
LINE329,54.176526,-0.831100,0.000000,-0.528707,0.000000,3.448496
LINE330,0.000000,3.704319,0.000000,3.361780,0.311348,1.247584
LINE331,25.207219,-0.829358,48.456340,3.340039,1.625438,1.248372
LINE332,4.137766,-0.831271,43.162600,3.341271,10.560229,1.246706
LINE333,0.658045,-0.833399,0.000000,0.950950,0.000000,-1.490539
LINE334,0.000000,4.659838,0.000000,3.542295,0.972801,1.248072
LINE335,54.176526,-0.831100,0.000000,-0.549047,0.000000,2.953019
LINE336,0.000000,2.099577,0.000000,2.539322,0.311348,1.247584
LINE337,0.000000,-0.488418,45.335271,3.340192,0.000000,0.115777
LINE338,25.207219,-0.829358,3.121077,3.337816,1.625438,1.248372
LINE339,4.137766,-0.831271,43.162600,3.341271,10.560229,1.246706
LINE340,0.658045,-0.833399,0.000000,0.894225,0.000000,-1.477488
LINE341,0.000000,4.087412,0.000000,-0.049550,0.972801,1.248072
LINE342,54.057113,-0.831099,0.000000,2.818895,0.000000,4.624950
LINE343,0.119413,-0.831417,0.000000,-0.534088,0.000000,2.640307
LINE344,0.000000,-0.499612,45.335271,3.340192,0.000000,0.204442
LINE345,25.207219,-0.829358,3.121077,3.337816,1.625438,1.248372
LINE346,4.137766,-0.831271,43.162600,3.341271,10.560229,1.246706
LINE347,0.658045,-0.833399,0.000000,0.712492,0.000000,1.475423
LINE348,54.057113,-0.831099,0.000000,1.327518,0.000000,-1.323273
LINE349,0.119413,-0.831417,0.000000,-0.340999,0.000000,4.452007
LINE350,0.000000,-0.641468,45.335271,3.340192,0.000000,-0.376538
LINE351,25.207219,-0.829358,3.121077,3.337816,1.625438,1.248372
LINE352,4.137766,-0.831271,43.162600,3.341271,10.560229,1.246706
LINE353,0.658045,-0.833399,0.000000,1.265302,0.000000,1.629912
LINE354,0.119413,-0.831417,0.000000,-0.501697,0.000000,4.103259
LINE355,0.000000,-1.376161,45.335271,3.340192,0.000000,-1.300223
LINE356,25.207219,-0.829358,3.121077,3.337816,1.625438,1.248372
LINE357,4.137766,-0.831271,43.162600,3.341271,10.560229,1.246706
LINE358,0.658045,-0.833399,0.000000,1.479611,0.000000,1.585661
LINE359,0.119413,-0.831417,0.000000,-0.346720,0.000000,2.787922
LINE360,0.000000,3.470360,45.335271,3.340192,0.000000,-1.422264
LINE361,25.207219,-0.829358,3.121077,3.337816,1.625438,1.248372
LINE362,4.137766,-0.831271,43.162600,3.341271,10.560229,1.246706
LINE363,0.658045,-0.833399,0.000000,0.106349,0.000000,1.655464
LINE364,0.119413,-0.831417,0.000000,-0.677859,0.000000,1.847479
LINE365,0.000000,3.104521,45.335271,3.340192,0.000000,-1.257705
LINE366,25.207219,-0.829358,3.121077,3.337816,1.625438,1.248372
LINE367,4.137766,-0.831271,43.162600,3.341271,10.560229,1.246706
LINE368,0.658045,-0.833399,0.000000,-1.186276,0.000000,1.539461
LINE369,0.119413,-0.831417,0.000000,0.031095,0.000000,2.617914
LINE370,0.000000,2.393348,45.335271,3.340192,0.000000,-1.511343
LINE371,25.207219,-0.829358,3.121077,3.337816,1.625438,1.248372
LINE372,4.137766,-0.831271,43.162600,3.341271,10.560229,1.246706
LINE373,0.658045,-0.833399,0.000000,-1.514742,0.000000,4.657529
LINE374,0.119413,-0.831417,0.000000,1.386580,0.000000,4.595615
LINE375,0.000000,1.496000,45.335271,3.340192,0.000000,-1.296046
LINE376,25.207219,-0.829358,3.121077,3.337816,1.625438,1.248372
LINE377,4.137766,-0.831271,43.162600,3.341271,10.086389,1.246659
LINE378,0.000000,4.677132,0.000000,2.835076,0.473841,1.247710
LINE379,0.658045,-0.833399,0.000000,4.631801,0.000000,1.686033
LINE380,0.119413,-0.831417,0.000000,0.864100,0.000000,-1.529065
LINE381,0.000000,2.245830,45.335271,3.340192,0.000000,-1.510921
LINE382,25.207219,-0.829358,3.121077,3.337816,1.625438,1.248372
LINE383,4.137766,-0.831271,43.162600,3.341271,10.086389,1.246659
LINE384,0.000000,-0.533170,0.000000,4.397532,0.473841,1.247710
LINE385,0.000000,3.577696,0.000000,2.458623,0.000000,-1.488258
LINE386,0.658045,-0.833399,0.000000,0.569784,0.000000,1.647003
LINE387,0.119413,-0.831417,0.000000,2.586553,0.000000,2.274306
LINE388,0.000000,0.536321,45.335271,3.340192,0.000000,-1.471353
LINE389,25.207219,-0.829358,3.121077,3.337816,1.625438,1.248372
LINE390,4.137766,-0.831271,43.162600,3.341271,10.086389,1.246659
LINE391,0.000000,-0.536475,0.000000,4.425154,0.473841,1.247710
LINE392,0.000000,3.654141,0.000000,2.479823,0.000000,-1.475691
LINE393,0.000000,0.983305,45.335271,3.340192,0.000000,-1.408535
LINE394,25.207219,-0.829358,3.121077,3.337816,1.625438,1.248372
LINE395,0.000000,-0.195575,0.000000,0.028349,3.779246,1.247522
LINE396,4.137766,-0.831271,43.162600,3.341271,6.307145,1.246142
LINE397,0.000000,-0.587488,0.000000,4.448940,0.473841,1.247710
LINE398,0.000000,3.496172,0.000000,2.498850,0.000000,-1.477656
LINE399,0.000000,0.802504,45.335271,3.340192,0.000000,4.666832
LINE400,25.207219,-0.829358,3.121077,3.337816,1.625438,1.248372
LINE401,0.000000,-0.036784,0.000000,-0.060773,3.779246,1.247522
LINE402,4.137766,-0.831271,43.162600,3.341271,6.307145,1.246142
LINE403,0.000000,-0.552715,0.000000,-0.758045,0.473841,1.247710
LINE404,0.000000,3.784281,0.000000,2.645599,0.000000,-1.387512
LINE405,0.000000,2.493524,45.335271,3.340192,0.000000,-1.065160
LINE406,25.207219,-0.829358,3.121077,3.337816,1.625438,1.248372
LINE407,0.000000,0.071147,0.000000,0.055398,3.779246,1.247522
LINE408,4.137766,-0.831271,43.162600,3.341271,6.307145,1.246142
LINE409,0.000000,-0.647223,0.000000,3.796228,0.000000,1.937689
LINE410,0.000000,-0.066838,0.000000,-0.950803,0.473841,1.247710
LINE411,0.000000,3.573281,0.000000,2.681405,0.000000,-1.346955
LINE412,25.207219,-0.829358,3.121077,3.337816,1.625438,1.248372
LINE413,0.000000,4.375282,0.000000,-0.070388,3.779246,1.247522
LINE414,4.137766,-0.831271,43.162600,3.341271,6.307145,1.246142
LINE415,0.000000,-0.677223,0.000000,3.781230,0.000000,1.993560
LINE416,0.000000,0.165906,0.000000,4.224078,0.473841,1.247710
LINE417,0.000000,-1.561754,0.000000,2.887455,0.000000,-1.517706
LINE418,25.207219,-0.829358,3.121077,3.337816,1.625438,1.248372
LINE419,0.000000,3.982616,0.000000,-1.293629,3.779246,1.247522
LINE420,4.137766,-0.831271,43.162600,3.341271,6.307145,1.246142
LINE421,0.000000,-0.610379,0.000000,3.859987,0.000000,1.927951
LINE422,0.000000,0.099625,0.000000,-0.742746,0.473841,1.247710
LINE423,0.000000,4.245546,0.000000,2.809369,0.000000,-1.424473
LINE424,25.207219,-0.829358,3.121077,3.337816,1.625438,1.248372
LINE425,0.000000,2.516774,0.000000,0.775429,0.000000,1.061736
LINE426,0.000000,3.318740,0.000000,-0.785478,3.779246,1.247522
LINE427,4.137766,-0.831271,43.162600,3.341271,6.307145,1.246142
LINE428,0.000000,-0.607067,0.000000,3.799563,0.000000,1.802169
LINE429,0.000000,0.539977,0.000000,0.103303,0.473841,1.247710
LINE430,0.000000,4.287167,0.000000,2.853569,0.000000,-1.401360
LINE431,25.207219,-0.829358,3.121077,3.337816,1.625438,1.248372
LINE432,0.000000,-0.500851,0.000000,2.818768,0.000000,1.222089
LINE433,0.000000,3.393967,0.000000,-0.916035,3.779246,1.247522
LINE434,4.137766,-0.831271,43.162600,3.341271,6.307145,1.246142
LINE435,0.000000,-0.595065,0.000000,3.884666,0.000000,1.850112
LINE436,0.000000,0.501455,0.000000,-0.035192,0.473841,1.247710
LINE437,0.000000,4.411634,0.000000,2.978920,0.000000,-1.453587
LINE438,25.207219,-0.829358,3.121077,3.337816,1.625438,1.248372
LINE439,0.000000,0.508242,0.000000,4.698835,0.000000,4.532265
LINE440,0.000000,3.848966,0.000000,-0.550587,3.779246,1.247522
LINE441,4.137766,-0.831271,43.162600,3.341271,6.307145,1.246142
LINE442,0.000000,-0.628174,0.000000,3.800541,0.000000,1.805377
LINE443,0.000000,2.038707,0.000000,0.689228,0.473841,1.247710
LINE444,0.000000,4.317725,0.000000,2.950997,0.000000,-1.259657
LINE445,25.207219,-0.829358,3.121077,3.337816,1.625438,1.248372
LINE446,0.000000,-0.824914,0.000000,2.159061,0.000000,1.495583
LINE447,0.000000,4.146031,0.000000,-1.007266,3.779246,1.247522
LINE448,4.137766,-0.831271,43.162600,3.341271,6.307145,1.246142
LINE449,0.000000,-0.591197,0.000000,3.761161,0.000000,1.784908
LINE450,0.000000,2.982518,0.000000,3.902530,0.473841,1.247710
LINE451,0.000000,4.495578,0.000000,3.011904,0.000000,-0.901989
LINE452,25.207219,-0.829358,3.121077,3.337816,1.625438,1.248372
LINE453,0.000000,0.142489,0.000000,2.118633,0.000000,-0.971856
LINE454,0.000000,4.524182,0.000000,-0.878595,3.779246,1.247522
LINE455,4.137766,-0.831271,43.162600,3.341271,6.307145,1.246142
LINE456,0.000000,-0.646884,0.000000,3.624591,0.000000,1.966898
LINE457,0.000000,0.310361,0.000000,4.116716,0.473841,1.247710
LINE458,0.000000,4.029513,0.000000,2.962718,0.000000,-1.316356
LINE459,25.002181,-0.829353,3.121077,3.337816,1.625438,1.248372
LINE460,0.000000,0.996568,0.000000,3.266811,0.000000,1.860672
LINE461,0.205038,-0.830032,0.000000,1.400782,0.000000,4.705375
LINE462,0.000000,-1.506267,0.000000,-0.438919,3.779246,1.247522
LINE463,4.137766,-0.831271,43.162600,3.341271,6.307145,1.246142
LINE464,0.000000,-0.608045,0.000000,3.615981,0.000000,1.795564
LINE465,0.000000,4.217148,0.000000,2.937591,0.000000,-1.454995
LINE466,25.002181,-0.829353,3.121077,3.337816,1.625438,1.248372
LINE467,0.000000,-0.478789,0.000000,3.589130,0.000000,1.315251
LINE468,0.000000,-1.315476,0.000000,3.159522,0.000000,1.328365
LINE469,0.205038,-0.830032,0.000000,1.456469,0.000000,4.709772
LINE470,0.000000,4.195044,0.000000,-0.011378,3.779246,1.247522
LINE471,4.137766,-0.831271,43.162600,3.341271,6.307145,1.246142
LINE472,0.000000,-0.701293,0.000000,3.601584,0.000000,1.793842
LINE473,0.000000,4.322177,0.000000,2.895513,0.000000,-1.511351
LINE474,25.002181,-0.829353,3.121077,3.337816,1.625438,1.248372
LINE475,0.000000,-0.638645,0.000000,0.435697,0.000000,4.657340
LINE476,0.205038,-0.830032,0.000000,1.519299,0.000000,4.705758
LINE477,0.000000,-1.548871,0.000000,-0.095753,3.779246,1.247522
LINE478,4.137766,-0.831271,43.162600,3.341271,6.307145,1.246142
LINE479,0.000000,-0.967485,0.000000,3.498499,0.000000,1.825440
LINE480,0.000000,4.184752,0.000000,2.582947,0.000000,-1.547637
LINE481,0.915144,-0.829733,3.121077,3.337816,1.625438,1.248372
LINE482,0.000000,-1.120128,0.000000,0.230933,0.000000,3.624138
LINE483,24.087037,-0.829338,0.000000,0.541372,0.000000,4.609505
LINE484,0.205038,-0.830032,0.000000,1.508501,0.000000,4.710587
LINE485,0.000000,3.409034,0.000000,0.222412,3.779246,1.247522
LINE486,4.137766,-0.831271,43.162600,3.341271,6.307145,1.246142
LINE487,0.000000,-1.142651,0.000000,3.526053,0.000000,1.806114
LINE488,0.000000,-0.855560,0.000000,3.703130,0.000000,1.588720
LINE489,0.915144,-0.829733,3.121077,3.337816,1.625438,1.248372
LINE490,0.000000,2.023732,0.000000,0.662566,0.000000,1.174406
LINE491,23.860139,-0.829337,0.000000,0.586120,0.000000,4.608440
LINE492,0.226898,-0.829486,0.000000,3.777181,0.000000,1.486732
LINE493,0.205038,-0.830032,0.000000,1.762000,0.000000,4.708984
LINE494,0.000000,-1.023628,0.000000,0.879125,3.779246,1.247522
LINE495,4.137766,-0.831271,43.162600,3.341271,6.307145,1.246142
LINE496,0.000000,-1.158746,0.000000,3.488665,0.000000,1.917371
LINE497,0.000000,-1.121630,0.000000,3.551349,0.000000,1.499892
LINE498,0.915144,-0.829733,3.121077,3.337816,1.625438,1.248372
LINE499,0.000000,0.586374,0.000000,2.593938,0.000000,1.863551
LINE500,23.860139,-0.829337,0.000000,0.591519,0.000000,4.605879
LINE501,0.226898,-0.829486,0.000000,-0.726257,0.000000,4.568567
LINE502,0.205038,-0.830032,0.000000,1.800287,0.000000,4.707849
LINE503,0.000000,4.228238,0.000000,0.393051,3.779246,1.247522
LINE504,4.137766,-0.831271,43.162600,3.341271,6.307145,1.246142
LINE505,0.000000,-1.483723,0.000000,3.607963,0.000000,1.987442
LINE506,0.000000,-0.610117,0.000000,2.602562,0.000000,-1.031921
LINE507,0.915144,-0.829733,3.121077,3.337816,1.625438,1.248372
LINE508,0.000000,3.556031,0.000000,3.556031,0.000000,-1.310591
LINE509,23.860139,-0.829337,0.000000,0.672245,0.000000,4.625499
LINE510,0.205038,-0.830032,0.000000,1.870669,0.000000,4.700786
LINE511,0.000000,-0.681199,0.000000,0.426651,3.779246,1.247522
LINE512,0.000000,0.131462,9.852724,3.340766,0.000000,1.547253
LINE513,4.137766,-0.831271,33.309877,3.341420,6.307145,1.246142
LINE514,0.000000,-1.475405,0.000000,3.599741,0.000000,2.140288
LINE515,0.000000,4.313965,3.121077,3.337816,1.625438,1.248372
LINE516,0.000000,-0.201681,0.000000,-0.201681,0.000000,2.996186
LINE517,0.915144,-0.829733,0.000000,3.688229,0.000000,1.552985
LINE518,23.860139,-0.829337,0.000000,0.507596,0.000000,4.641665
LINE519,0.205038,-0.830032,0.000000,2.015100,0.000000,4.709531
LINE520,0.000000,-1.253906,0.000000,0.535224,3.779246,1.247522
LINE521,0.000000,2.343798,9.852724,3.340766,0.000000,1.535395
LINE522,4.137766,-0.831271,33.309877,3.341420,6.307145,1.246142
LINE523,0.000000,-0.858282,0.000000,3.530242,0.000000,1.435091
LINE524,0.000000,4.439796,3.121077,3.337816,1.625438,1.248372
LINE525,0.000000,-1.344540,0.000000,3.153202,0.000000,1.247389
LINE526,0.915144,-0.829733,0.000000,3.672900,0.000000,1.553264
LINE527,23.860139,-0.829337,0.000000,0.493796,0.000000,4.421962
LINE528,0.205038,-0.830032,0.000000,2.541353,0.000000,-1.567423
LINE529,0.000000,-0.163617,0.000000,1.583564,3.779246,1.247522
LINE530,4.137766,-0.831271,33.309877,3.341420,6.307145,1.246142
LINE531,0.000000,-1.354500,0.000000,3.664203,0.000000,1.598906
LINE532,0.000000,4.385172,3.121077,3.337816,1.625438,1.248372
LINE533,0.000000,3.500723,0.000000,0.170387,0.000000,1.190562
LINE534,0.915144,-0.829733,0.000000,3.693103,0.000000,1.555759
LINE535,23.860139,-0.829337,0.000000,0.707814,0.000000,3.548736
LINE536,0.205038,-0.830032,0.000000,2.736208,0.000000,4.709891
LINE537,0.000000,0.244315,0.000000,3.638758,1.259742,1.247521
LINE538,0.000000,3.183385,0.000000,-1.010998,2.519504,1.247523
LINE539,4.137766,-0.831271,33.309877,3.341420,6.307145,1.246142
LINE540,0.000000,-0.457342,0.000000,3.104093,0.000000,1.636288
LINE541,0.000000,4.432424,3.121077,3.337816,1.625438,1.248372
LINE542,0.000000,4.146639,0.000000,3.053826,0.000000,4.404471
LINE543,0.915144,-0.829733,0.000000,3.632972,0.000000,1.553623
LINE544,23.860139,-0.829337,0.000000,-0.050839,0.000000,4.695739
LINE545,0.205038,-0.830032,0.000000,2.755847,0.000000,4.700602
LINE546,0.000000,0.077314,0.000000,3.422254,1.259742,1.247521
LINE547,4.137766,-0.831271,33.309877,3.341420,6.307145,1.246142
LINE548,0.000000,0.256621,0.000000,2.653471,0.000000,1.460521
LINE549,0.000000,4.458887,3.121077,3.337816,1.625438,1.248372
LINE550,0.000000,3.818453,0.000000,3.818453,0.000000,-1.409217
LINE551,0.667117,-0.829732,0.000000,3.715290,0.000000,1.573580
LINE552,0.248028,-0.829735,0.000000,0.002080,0.000000,4.699957
LINE553,23.860139,-0.829337,0.000000,-0.251669,0.000000,-1.467573
LINE554,0.205038,-0.830032,0.000000,2.823471,0.000000,4.703966
LINE555,0.000000,4.085169,0.000000,2.329518,1.259742,1.247521
LINE556,4.137766,-0.831271,33.309877,3.341420,6.307145,1.246142
LINE557,0.000000,-0.141893,0.000000,2.119117,0.000000,0.686635
LINE558,0.000000,4.418957,3.121077,3.337816,1.625438,1.248372
LINE559,0.000000,-1.300419,0.000000,0.391164,0.000000,2.791202
LINE560,0.667117,-0.829732,0.000000,4.066959,0.000000,1.558067
LINE561,0.248028,-0.829735,0.000000,-1.424566,0.000000,-0.579141
LINE562,23.860139,-0.829337,0.000000,-0.260208,0.000000,1.242253
LINE563,0.205038,-0.830032,0.000000,2.861863,0.000000,-1.547896
LINE564,4.137766,-0.831271,33.309877,3.341420,6.307145,1.246142
LINE565,0.000000,2.853888,0.000000,-0.230563,0.000000,-0.789933
LINE566,0.000000,4.072273,0.997156,3.337818,1.625438,1.248372
LINE567,0.000000,3.183500,0.000000,0.094176,0.000000,-0.409099
LINE568,0.000000,4.161716,2.123921,3.337815,0.000000,1.673629
LINE569,0.667117,-0.829732,0.000000,-1.430411,0.000000,1.575355
LINE570,0.205038,-0.830032,0.000000,2.372039,0.000000,4.704611
LINE571,4.137766,-0.831271,33.309877,3.341420,6.307145,1.246142
LINE572,0.000000,3.805014,0.997156,3.337818,1.625438,1.248372
LINE573,0.000000,-0.730490,0.000000,-0.730490,0.000000,1.030424
LINE574,0.000000,3.931281,2.123921,3.337815,0.000000,1.666220
LINE575,0.667117,-0.829732,0.000000,4.061544,0.000000,1.627279
LINE576,0.205038,-0.830032,0.000000,2.485080,0.000000,-1.558697
LINE577,4.137766,-0.831271,33.309877,3.341420,6.307145,1.246142
LINE578,0.000000,3.542121,0.997156,3.337818,1.625438,1.248372
LINE579,0.000000,-0.174378,0.000000,1.078185,0.000000,1.855219
LINE580,0.000000,4.087609,0.000000,-1.232440,0.000000,-1.315627
LINE581,0.000000,3.179524,2.123921,3.337815,0.000000,1.683605
LINE582,0.667117,-0.829732,0.000000,-1.198304,0.000000,1.609912
LINE583,0.205038,-0.830032,0.000000,2.711726,0.000000,4.709444
LINE584,0.000000,-0.481618,9.243421,3.340849,0.000000,3.139844
LINE585,4.137766,-0.831271,24.066458,3.341640,6.307145,1.246142
LINE586,0.000000,3.678086,0.997156,3.337818,1.625438,1.248372
LINE587,0.000000,3.649229,0.000000,4.161311,0.000000,4.508762
LINE588,0.000000,4.172513,0.000000,-1.447981,0.000000,-1.295345
LINE589,0.000000,3.377317,2.123921,3.337815,0.000000,1.673722
LINE590,0.667117,-0.829732,0.000000,0.076679,0.000000,1.758220
LINE591,0.205038,-0.830032,0.000000,2.911421,0.000000,-1.562697
LINE592,0.000000,-0.475630,9.243421,3.340849,0.000000,3.290433
LINE593,4.137766,-0.831271,24.066458,3.341640,6.307145,1.246142
LINE594,0.000000,-0.136097,0.997156,3.337818,0.000000,4.213895
LINE595,0.000000,3.465270,0.000000,-1.548187,1.625438,1.248372
LINE596,0.000000,-0.580834,0.000000,-1.182802,0.000000,-1.353027
LINE597,0.000000,3.264201,2.123921,3.337815,0.000000,1.654360
LINE598,0.667117,-0.829732,0.000000,4.236477,0.000000,1.561931
LINE599,0.205038,-0.830032,0.000000,2.989929,0.000000,4.712146
LINE600,0.000000,-0.438786,9.243421,3.340849,0.000000,2.573540
LINE601,0.000000,4.672401,0.000000,1.444139,4.419995,1.246503
LINE602,4.137766,-0.831271,24.066458,3.341640,1.887151,1.245298
LINE603,0.000000,-0.227667,0.997156,3.337818,0.000000,-1.448358
LINE604,0.000000,-1.161139,0.000000,-0.036000,0.000000,2.648314
LINE605,0.000000,4.315698,0.000000,2.665430,0.000000,3.729981
LINE606,0.000000,-1.052767,0.000000,4.172650,1.625438,1.248372
LINE607,0.000000,1.496764,0.000000,4.469337,0.000000,-0.225297
LINE608,0.000000,0.038421,0.000000,-1.410696,0.000000,4.624128
LINE609,0.000000,3.288199,2.123921,3.337815,0.000000,1.651207
LINE610,0.667117,-0.829732,0.000000,-1.007990,0.000000,1.593232
LINE611,0.205038,-0.830032,0.000000,2.468157,0.000000,-1.570051
LINE612,0.000000,-0.486050,9.243421,3.340849,0.000000,1.770354
LINE613,0.000000,0.220898,0.000000,1.327318,4.419995,1.246503
LINE614,4.137766,-0.831271,24.066458,3.341640,1.887151,1.245298
LINE615,0.000000,1.966925,0.997156,3.337818,0.000000,-0.965482
LINE616,0.000000,-1.535458,0.000000,-1.535458,0.000000,4.556891
LINE617,0.000000,2.939912,0.000000,2.939912,0.000000,-0.145406
LINE618,0.000000,4.508134,0.000000,-0.662363,1.625438,1.248372
LINE619,0.000000,3.013527,0.000000,-0.179510,0.000000,4.578411
LINE620,0.000000,3.191333,2.123921,3.337815,0.000000,1.650504
LINE621,0.205038,-0.830032,0.000000,0.517113,0.000000,1.551095
LINE622,0.000000,-0.571949,9.243421,3.340849,0.000000,1.826016
LINE623,0.000000,-0.124580,1.580248,3.340801,0.000000,1.611085
LINE624,4.137766,-0.831271,22.486211,3.341699,1.887151,1.245298
LINE625,0.000000,1.258299,0.997156,3.337818,0.000000,1.221885
LINE626,0.000000,4.688780,0.000000,-0.097703,0.000000,4.655798
LINE627,0.000000,3.298335,2.123921,3.337815,0.000000,1.665805
LINE628,0.205038,-0.830032,0.000000,0.254167,0.000000,1.381043
LINE629,0.000000,-0.611205,9.243421,3.340849,0.000000,1.901265
LINE630,0.000000,-0.028083,1.580248,3.340801,0.000000,1.534218
LINE631,4.137766,-0.831271,22.486211,3.341699,1.887151,1.245298
LINE632,0.000000,0.717880,0.997156,3.337818,0.000000,-0.067519
LINE633,0.000000,3.615972,0.000000,0.005447,0.000000,4.604388
LINE634,0.000000,3.391292,2.123921,3.337815,0.000000,1.660512
LINE635,0.000000,-0.655663,9.243421,3.340849,0.000000,1.710969
LINE636,0.000000,0.175871,1.580248,3.340801,0.000000,1.620267
LINE637,4.137766,-0.831271,22.486211,3.341699,1.887151,1.245298
LINE638,0.000000,0.000000,0.997156,3.337818,0.000000,-0.067519
LINE639,0.000000,4.135795,0.000000,-0.008049,0.000000,4.520536
LINE640,0.000000,3.493687,2.123921,3.337815,0.000000,1.662474
LINE641,0.000000,-0.656059,9.243421,3.340849,0.000000,1.654645
LINE642,0.000000,-0.208503,1.580248,3.340801,0.000000,1.603857
LINE643,4.137766,-0.831271,22.486211,3.341699,1.887151,1.245298
LINE644,0.000000,4.315224,0.000000,-0.192393,0.000000,4.446229
LINE645,0.000000,3.320958,2.123921,3.337815,0.000000,1.660272
LINE646,0.000000,-0.643947,9.243421,3.340849,0.000000,1.675789
LINE647,0.000000,-0.178140,1.580248,3.340801,0.000000,1.549724
LINE648,4.137766,-0.831271,22.486211,3.341699,1.887151,1.245298
LINE649,0.000000,3.773878,0.000000,0.269335,0.000000,4.510450
LINE650,0.000000,2.213999,2.123921,3.337815,0.000000,1.777529
LINE651,0.000000,-0.653456,9.243421,3.340849,0.000000,1.654212
LINE652,0.000000,-0.056450,1.580248,3.340801,0.000000,1.549133
LINE653,4.137766,-0.831271,22.486211,3.341699,1.887151,1.245298
LINE654,0.000000,3.512977,0.000000,0.890231,0.000000,4.606359
LINE655,0.000000,1.857751,0.280590,3.337807,0.000000,1.750456
LINE656,0.000000,1.482264,1.843331,3.337816,0.000000,1.858357
LINE657,0.000000,-0.739119,9.243421,3.340849,0.000000,1.611327
LINE658,0.000000,-0.048784,1.580248,3.340801,0.000000,1.517673
LINE659,4.137766,-0.831271,22.486211,3.341699,1.887151,1.245298
LINE660,0.000000,3.378380,0.000000,0.356420,0.000000,-1.444815
LINE661,0.000000,1.174761,0.280590,3.337807,0.000000,1.778691
LINE662,0.000000,2.621115,1.843331,3.337816,0.000000,1.466589
LINE663,0.000000,-0.658315,9.243421,3.340849,0.000000,1.617076
LINE664,0.000000,-0.181140,1.580248,3.340801,0.000000,1.405858
LINE665,4.137766,-0.831271,22.486211,3.341699,1.887151,1.245298
LINE666,0.000000,3.611828,0.000000,0.099640,0.000000,-1.392265
LINE667,0.000000,-0.619110,0.280590,3.337807,0.000000,4.550098
LINE668,0.000000,2.595025,1.843331,3.337816,0.000000,1.365982
LINE669,0.000000,-0.622575,9.243421,3.340849,0.000000,1.609485
LINE670,0.000000,-0.052492,1.580248,3.340801,0.000000,0.661537
LINE671,1.625887,-0.831598,0.000000,0.733466,0.000000,-0.273348
LINE672,2.511879,-0.831060,22.486211,3.341699,1.887151,1.245298
LINE673,0.000000,-0.254274,0.000000,-0.254274,0.000000,-1.509914
LINE674,0.000000,-0.753256,0.280590,3.337807,0.000000,1.515511
LINE675,0.000000,2.895594,1.843331,3.337816,0.000000,1.557866
LINE676,0.000000,-0.703151,9.243421,3.340849,0.000000,1.596690
LINE677,0.000000,-0.263507,1.580248,3.340801,0.000000,-1.164478
LINE678,1.625887,-0.831598,0.000000,0.799745,0.000000,-0.944199
LINE679,2.511879,-0.831060,22.486211,3.341699,1.887151,1.245298
LINE680,0.000000,2.688911,0.000000,2.688911,0.000000,1.503572
LINE681,0.000000,3.070183,0.280590,3.337807,0.000000,1.580773
LINE682,0.000000,-0.841331,9.243421,3.340849,0.000000,1.605054
LINE683,0.000000,-0.967896,1.580248,3.340801,0.000000,1.519063
LINE684,1.625887,-0.831598,0.000000,0.851322,0.000000,-0.732069
LINE685,2.511879,-0.831060,22.486211,3.341699,1.887151,1.245298
LINE686,0.000000,-0.895123,9.243421,3.340849,0.000000,1.605674
LINE687,0.000000,3.575027,1.580248,3.340801,0.000000,1.677848
LINE688,1.625887,-0.831598,0.000000,0.599837,0.000000,-1.161140
LINE689,0.000000,-0.540065,0.000000,0.004600,0.411514,1.246062
LINE690,2.511879,-0.831060,22.486211,3.341699,1.475637,1.245085
LINE691,0.000000,-1.051269,9.243421,3.340849,0.000000,1.616339
LINE692,1.625887,-0.831598,0.000000,0.662720,0.000000,-0.197985
LINE693,0.000000,-0.408912,0.000000,0.012927,0.203679,1.246062
LINE694,0.000000,-0.774179,0.000000,-1.254435,0.207835,1.246062
LINE695,0.000000,4.586418,7.250940,3.341049,0.000000,4.435464
LINE696,2.511879,-0.831060,15.235273,3.342008,1.475637,1.245085
LINE697,0.000000,-1.104548,9.243421,3.340849,0.000000,1.585507
LINE698,1.625887,-0.831598,0.000000,0.793854,0.000000,-1.234382
LINE699,0.000000,-0.658746,0.000000,0.324926,0.203679,1.246062
LINE700,0.000000,2.218262,0.000000,2.503664,0.207835,1.246062
LINE701,0.000000,-0.628862,7.250940,3.341049,0.000000,1.482389
LINE702,2.511879,-0.831060,15.235273,3.342008,1.475637,1.245085
LINE703,0.000000,-1.149130,9.243421,3.340849,0.000000,1.598885
LINE704,1.625887,-0.831598,0.000000,0.830733,0.000000,-1.428916
LINE705,0.000000,-0.731118,0.000000,-0.096629,0.203679,1.246062
LINE706,2.511879,-0.831060,15.235273,3.342008,1.475637,1.245085
LINE707,0.000000,2.863289,0.000000,0.310874,0.000000,4.632695
LINE708,0.000000,-1.130624,9.243421,3.340849,0.000000,1.619942
LINE709,1.625887,-0.831598,0.000000,0.860264,0.000000,-1.432654
LINE710,0.000000,-1.074504,0.000000,0.570711,0.203679,1.246062
LINE711,0.487602,-0.830521,15.235273,3.342008,1.475637,1.245085
LINE712,2.024277,-0.831189,0.000000,3.535921,0.000000,1.494298
LINE713,0.000000,2.949306,0.000000,0.254564,0.000000,4.649800
LINE714,0.000000,-1.054694,9.243421,3.340849,0.000000,1.579851
LINE715,1.625887,-0.831598,0.000000,0.863513,0.000000,-1.427175
LINE716,0.000000,0.480593,0.000000,3.425806,0.203679,1.246062
LINE717,0.487602,-0.830521,15.235273,3.342008,1.475637,1.245085
LINE718,2.024277,-0.831189,0.000000,3.601532,0.000000,1.370271
LINE719,0.000000,2.811930,0.000000,0.409861,0.000000,4.667652
LINE720,0.000000,-0.475085,9.243421,3.340849,0.000000,1.560618
LINE721,1.625887,-0.831598,0.000000,0.876856,0.000000,-1.415537
LINE722,0.000000,2.469993,0.000000,0.780616,0.203679,1.246062
LINE723,0.487602,-0.830521,14.252980,3.342062,1.475637,1.245085
LINE724,0.000000,-0.622119,0.982293,3.341221,0.000000,1.804489
LINE725,2.024277,-0.831189,0.000000,3.462798,0.000000,1.153240
LINE726,0.000000,3.012611,0.000000,0.451509,0.000000,4.689124
LINE727,0.000000,-0.270419,9.243421,3.340849,0.000000,1.586269
LINE728,1.625887,-0.831598,0.000000,0.893737,0.000000,-1.437830
LINE729,0.000000,1.046211,0.000000,0.594746,0.203679,1.246062
LINE730,0.487602,-0.830521,14.252980,3.342062,1.475637,1.245085
LINE731,0.000000,-0.613876,0.982293,3.341221,0.000000,1.823965
LINE732,2.024277,-0.831189,0.000000,3.721784,0.000000,1.409044
LINE733,0.000000,2.894855,0.000000,0.274859,0.000000,4.665192
LINE734,0.000000,-0.154682,9.243421,3.340849,0.000000,1.595333
LINE735,1.625887,-0.831598,0.000000,0.774482,0.000000,-1.457853
LINE736,0.000000,2.947234,0.000000,0.193035,0.203679,1.246062
LINE737,0.487602,-0.830521,14.252980,3.342062,1.475637,1.245085
LINE738,0.000000,-0.602241,0.982293,3.341221,0.000000,1.846516
LINE739,2.024277,-0.831189,0.000000,3.620914,0.000000,1.354079
LINE740,0.000000,2.732953,0.000000,0.487990,0.000000,-1.535327
LINE741,0.000000,-0.142040,9.243421,3.340849,0.000000,1.685031
LINE742,1.625887,-0.831598,0.000000,0.798766,0.000000,-1.484884
LINE743,0.000000,-0.407270,0.000000,0.704346,0.203679,1.246062
LINE744,0.487602,-0.830521,14.252980,3.342062,1.475637,1.245085
LINE745,0.000000,-0.179932,0.748623,3.341222,0.000000,1.491705
LINE746,0.000000,-0.509109,0.233670,3.341218,0.000000,2.243033
LINE747,2.024277,-0.831189,0.000000,3.572939,0.000000,1.485944
LINE748,0.000000,2.711798,0.000000,0.467504,0.000000,-1.551845
LINE749,0.000000,2.910109,9.243421,3.340849,0.000000,1.634572
LINE750,1.625887,-0.831598,0.000000,0.737069,0.000000,-1.481570
LINE751,0.000000,-0.603626,0.000000,-0.102585,0.203679,1.246062
LINE752,0.487602,-0.830521,14.252980,3.342062,0.000000,1.759494
LINE753,0.000000,-0.367791,0.000000,3.266961,1.475637,1.245085
LINE754,0.000000,3.986208,0.748623,3.341222,0.000000,1.596917
LINE755,0.000000,-0.312182,0.233670,3.341218,0.000000,1.969727
LINE756,2.024277,-0.831189,0.000000,3.947523,0.000000,1.440976
LINE757,0.000000,2.774987,0.000000,0.478908,0.000000,-1.530987
LINE758,0.000000,2.636668,9.243421,3.340849,0.000000,4.389955
LINE759,1.625887,-0.831598,0.000000,0.756878,0.000000,-1.499562
LINE760,0.000000,-1.403506,0.000000,0.950040,0.203679,1.246062
LINE761,0.487602,-0.830521,14.252980,3.342062,0.000000,1.729647
LINE762,0.000000,-0.365904,0.000000,3.267462,1.475637,1.245085
LINE763,0.000000,-0.357583,0.233670,3.341218,0.000000,4.225832
LINE764,2.024277,-0.831189,0.000000,3.405218,0.000000,1.479206
LINE765,0.000000,2.904917,0.000000,0.385195,0.000000,4.703990
LINE766,0.000000,2.513216,9.243421,3.340849,0.000000,4.416563
LINE767,1.625887,-0.831598,0.000000,0.670917,0.000000,-1.504460
LINE768,0.000000,-0.556302,0.000000,2.698280,0.203679,1.246062
LINE769,0.487602,-0.830521,14.252980,3.342062,0.000000,1.687590
LINE770,0.000000,-0.499606,0.000000,-1.138355,0.187048,1.245079
LINE771,0.000000,-0.395015,0.000000,3.381415,1.288589,1.245085
LINE772,0.000000,0.527475,0.233670,3.341218,0.000000,4.650712
LINE773,2.024277,-0.831189,0.000000,3.669595,0.000000,1.475573
LINE774,0.000000,2.840911,0.000000,0.305669,0.000000,4.669940
LINE775,0.000000,2.038204,9.243421,3.340849,0.000000,4.417935
LINE776,1.625887,-0.831598,0.000000,0.631030,0.000000,-1.518276
LINE777,0.000000,2.429668,0.000000,2.911311,0.203679,1.246062
LINE778,0.487602,-0.830521,14.252980,3.342062,0.000000,1.683908
LINE779,0.000000,0.881771,0.000000,-0.692237,0.187048,1.245079
LINE780,0.000000,-0.430821,0.000000,3.458216,1.288589,1.245085
LINE781,0.000000,0.648953,0.233670,3.341218,0.000000,4.708184
LINE782,2.024277,-0.831189,0.000000,3.624996,0.000000,1.493114
LINE783,0.000000,2.902245,0.000000,0.190270,0.000000,4.552402
LINE784,0.000000,3.427261,9.243421,3.340849,0.000000,4.624434
LINE785,1.625887,-0.831598,0.000000,0.685058,0.000000,-1.502122
LINE786,0.487602,-0.830521,14.252980,3.342062,0.000000,1.680276
LINE787,0.000000,-0.535034,0.000000,3.463537,1.288589,1.245085
LINE788,0.000000,-0.007186,0.233670,3.341218,0.000000,4.686552
LINE789,2.024277,-0.831189,0.000000,3.887837,0.000000,1.492156
LINE790,0.000000,2.709354,0.000000,0.265083,0.000000,4.413768
LINE791,1.477314,-0.831597,0.000000,0.526034,0.000000,-1.523348
LINE792,0.148574,-0.831608,0.000000,1.815601,0.000000,-1.522365
LINE793,0.487602,-0.830521,14.252980,3.342062,0.000000,1.653872
LINE794,0.000000,-0.542004,0.000000,3.297131,1.288589,1.245085
LINE795,0.000000,0.282289,0.233670,3.341218,0.000000,3.222998
LINE796,2.024277,-0.831189,0.000000,3.821772,0.000000,1.461964
LINE797,0.000000,2.995318,0.000000,0.012893,0.000000,4.652948
LINE798,1.477314,-0.831597,0.000000,0.503807,0.000000,-1.499597
LINE799,0.148574,-0.831608,0.000000,2.415831,0.000000,-0.162049
LINE800,0.487602,-0.830521,0.000000,4.116491,0.000000,1.552860
LINE801,0.000000,2.972331,14.252980,3.342062,0.000000,2.222815
LINE802,0.000000,-0.420406,0.000000,3.495905,1.288589,1.245085
LINE803,0.000000,3.863701,0.233670,3.341218,0.000000,-1.497883
LINE804,2.024277,-0.831189,0.000000,3.588571,0.000000,1.495709
LINE805,0.000000,3.308292,0.000000,0.002928,0.000000,4.703615
LINE806,1.477314,-0.831597,0.000000,0.530164,0.000000,-1.494715
LINE807,0.148574,-0.831608,0.000000,1.442567,0.000000,-1.482007
LINE808,0.487602,-0.830521,0.000000,4.157063,0.000000,1.567088
LINE809,0.000000,3.043377,14.252980,3.342062,0.000000,2.082332
LINE810,0.000000,1.153758,0.000000,1.153758,0.000000,4.351625
LINE811,0.000000,-0.322753,0.000000,3.846865,1.288589,1.245085
LINE812,0.000000,-1.323473,0.233670,3.341218,0.000000,4.712198
LINE813,2.024277,-0.831189,0.000000,3.387953,0.000000,1.521238
LINE814,0.000000,-0.645825,0.000000,-0.478502,0.000000,-1.268760
LINE815,1.477314,-0.831597,0.000000,0.391108,0.000000,-1.483809
LINE816,0.148574,-0.831608,0.000000,3.171039,0.000000,-1.552869
LINE817,0.487602,-0.830521,0.000000,3.995413,0.000000,1.600775
LINE818,0.000000,3.250823,14.252980,3.342062,0.000000,2.040757
LINE819,0.000000,-0.441264,0.000000,3.863704,0.000000,1.998837
LINE820,0.000000,-0.043558,0.000000,0.758690,1.288589,1.245085
LINE821,2.024277,-0.831189,0.000000,3.428359,0.000000,1.521167
LINE822,0.000000,-0.393012,0.000000,0.096590,0.000000,4.674255
LINE823,1.477314,-0.831597,0.000000,0.111085,0.000000,-1.538562
LINE824,0.487602,-0.830521,0.000000,4.007518,0.000000,1.568596
LINE825,0.000000,3.338569,14.252980,3.342062,0.000000,1.941585
LINE826,0.000000,-0.644385,0.000000,3.034532,0.000000,3.065631
LINE827,0.000000,-1.555310,0.000000,-1.555310,1.288589,1.245085
LINE828,2.024277,-0.831189,0.000000,3.659105,0.000000,1.551859
LINE829,0.000000,1.580350,0.000000,1.580350,0.000000,-1.529398
LINE830,1.477314,-0.831597,0.000000,0.074410,0.000000,-1.506953
LINE831,0.487602,-0.830521,0.000000,3.878093,0.000000,1.605703
LINE832,0.000000,3.105221,14.252980,3.342062,0.000000,1.845941
LINE833,0.000000,0.156564,0.000000,-0.994211,0.000000,-1.173641
LINE834,0.000000,3.779254,0.000000,0.814865,1.288589,1.245085
LINE835,2.024277,-0.831189,0.000000,3.625922,0.000000,1.550189
LINE836,1.477314,-0.831597,0.000000,3.765573,0.000000,-1.480917
LINE837,0.487602,-0.830521,0.000000,3.456343,0.000000,1.623403
LINE838,0.000000,3.129826,14.252980,3.342062,0.000000,1.876425
LINE839,0.000000,2.698700,0.000000,2.008368,0.000000,4.674401
LINE840,2.024277,-0.831189,0.000000,3.636143,0.000000,1.550689
LINE841,1.477314,-0.831597,0.000000,3.524670,0.000000,1.128213
LINE842,0.487602,-0.830521,0.000000,0.119760,0.000000,4.687319
LINE843,0.000000,2.776709,14.252980,3.342062,0.000000,1.623785
LINE844,0.000000,3.544891,0.000000,-0.929613,0.000000,1.943768
LINE845,0.000000,3.034281,0.000000,3.170674,0.000000,3.187515
LINE846,2.024277,-0.831189,0.000000,3.720222,0.000000,1.553157
LINE847,1.477314,-0.831597,0.000000,3.213473,0.000000,-1.324990
LINE848,0.487602,-0.830521,0.000000,-0.134632,0.000000,4.647513
LINE849,0.000000,2.829095,14.252980,3.342062,0.000000,1.612220
LINE850,0.000000,3.383237,0.000000,-0.559854,0.000000,2.031184
LINE851,0.000000,3.208217,0.000000,2.919280,0.000000,1.170911
LINE852,2.024277,-0.831189,0.000000,3.837482,0.000000,1.567581
LINE853,1.477314,-0.831597,0.000000,-1.047177,0.000000,-1.564812
LINE854,0.487602,-0.830521,0.000000,-0.192772,0.000000,3.864501
LINE855,0.000000,2.908925,14.252980,3.342062,0.000000,1.613185
LINE856,0.000000,3.465553,0.000000,-0.435950,0.000000,2.081965
LINE857,0.000000,1.378753,0.000000,1.378753,0.000000,1.911908
LINE858,2.024277,-0.831189,0.000000,3.319453,0.000000,1.354589
LINE859,0.224986,-0.831606,0.000000,2.756429,0.000000,4.682344
LINE860,1.252328,-0.831596,0.000000,-0.431751,0.000000,1.077265
LINE861,0.487602,-0.830521,0.000000,-0.203881,0.000000,4.178994
LINE862,0.000000,2.963417,14.252980,3.342062,0.000000,1.620386
LINE863,0.000000,3.665106,0.000000,-0.462756,0.000000,1.808067
LINE864,0.000000,-0.747729,0.000000,-0.747729,0.000000,0.884222
LINE865,2.024277,-0.831189,0.000000,-1.322664,0.000000,4.687996
LINE866,0.487602,-0.830521,0.000000,-0.182729,0.000000,3.905958
LINE867,0.000000,3.074074,14.252980,3.342062,0.000000,1.642987
LINE868,0.000000,3.313508,0.000000,-0.230168,0.000000,2.115429
LINE869,0.000000,3.359072,0.000000,-0.832759,0.000000,1.582175
LINE870,2.024277,-0.831189,0.000000,1.809223,0.000000,4.659734
LINE871,0.487602,-0.830521,0.000000,-0.210966,0.000000,3.594757
LINE872,0.000000,0.396129,0.846469,3.341950,0.000000,4.707289
LINE873,0.000000,4.644870,13.406511,3.342069,0.000000,3.074074
LINE874,0.000000,3.065975,0.000000,4.311533,0.000000,2.378196
LINE875,0.000000,3.821643,0.000000,2.129794,0.000000,1.239639
LINE876,2.024277,-0.831189,0.000000,-0.432986,0.000000,4.671869
LINE877,0.487602,-0.830521,0.000000,-0.215266,0.000000,3.408639
LINE878,0.000000,-0.067519,0.846469,3.341950,0.000000,3.074074
LINE879,0.000000,-0.067519,13.406511,3.342069,0.000000,3.074074
LINE880,0.000000,1.469323,0.000000,1.623554,0.000000,1.540022
LINE881,0.000000,0.293608,0.000000,3.451110,0.000000,1.388290
LINE882,2.024277,-0.831189,0.000000,0.166846,0.000000,-1.566214
LINE883,0.487602,-0.830521,0.000000,-0.148567,0.000000,3.784682
LINE884,0.000000,2.610426,0.846469,3.341950,0.000000,3.074074
LINE885,0.000000,0.000000,13.406511,3.342069,0.000000,3.074074
LINE886,2.024277,-0.831189,0.000000,0.428872,0.000000,-1.553774
LINE887,0.254401,-0.830521,0.000000,-0.209253,0.000000,2.379377
LINE888,0.233201,-0.830521,0.000000,3.989253,0.000000,-1.326280
LINE889,0.000000,1.503278,0.846469,3.341950,0.000000,-0.067519
LINE890,2.024277,-0.831189,0.000000,4.124106,0.000000,2.604170
LINE891,0.254401,-0.830521,0.000000,-0.164848,0.000000,2.196684
LINE892,0.233201,-0.830521,0.000000,4.359612,0.000000,-0.975429
LINE893,0.000000,0.000000,0.846469,3.341950,0.000000,3.074074
LINE894,0.984568,-0.831186,0.000000,0.816455,0.000000,1.416208
LINE895,1.039709,-0.831193,0.000000,0.050321,0.000000,1.489274
LINE896,0.254401,-0.830521,0.000000,-0.157387,0.000000,1.956166
LINE897,0.233201,-0.830521,0.000000,1.424179,0.000000,-0.830233
LINE898,0.000000,0.000000,0.846469,3.341950,0.000000,-0.067519
LINE899,0.984568,-0.831186,0.000000,2.874375,0.000000,1.349004
LINE900,0.254401,-0.830521,0.000000,-0.597701,0.000000,1.630779
LINE901,0.254401,-0.830521,0.000000,-0.021368,0.000000,1.863799
LINE902,0.254401,-0.830521,0.000000,4.680157,0.000000,1.490206
LINE903,0.254401,-0.830521,0.000000,2.414983,0.000000,1.590454
LINE904,0.254401,-0.830521,0.000000,0.340191,0.000000,1.760673
LINE905,0.254401,-0.830521,0.000000,3.626153,0.000000,4.545803
